[General]
network = Network
sim-time-limit = 200s


Network.gen.generationInterval=exponential(1)
Network.queue.serviceTime=exponential(1)
